@<TRIPOS>MOLECULE
MOL
   61    62     1     0     0
SMALL
bcc


@<TRIPOS>ATOM
      1 C1          6.7880   -6.0060   -2.5750 c        1 MOL      0.637298000
      2 O1           7.7230    -5.8470    -1.8030 o          1 MOL      -0.545000
      3 C2           6.8920    -6.8220    -3.8290 ce         1 MOL      -0.168400
      4 C3           6.5860    -6.2930    -5.0320 c2         1 MOL      -0.085200
      5 C4           7.3660    -8.2250    -3.5820 c3         1 MOL      -0.059900
      6 C5           6.6390    -6.9660    -6.3780 c3         1 MOL      -0.058200
      7 C6           6.9980    -5.9960    -7.5150 c3         1 MOL      -0.045200
      8 C7           5.8020    -5.4160    -8.2480 c2         1 MOL      -0.171400
      9 C8           5.0710    -4.4340    -7.6860 c2         1 MOL      -0.182000
     10 C9           5.4810    -6.0190    -9.6030 c3         1 MOL       0.180300
     11 C10          4.5530    -5.1330   -10.4210 c3         1 MOL      -0.091100
     12 O2           6.6750    -6.2210   -10.3570 oh         1 MOL      -0.595800
     13 O3           5.5520    -5.4660    -2.4290 os         1 MOL      -0.442900
     14 C11          5.5370    -4.0380    -2.2810 c3         1 MOL       0.141400
     15 C12          4.9220    -3.3690    -3.5390 c3         1 MOL      -0.062000
     16 C13          4.1160    -4.4180    -4.3280 c3         1 MOL      -0.087600
     17 C14          6.0580    -2.8530    -4.4440 c3         1 MOL      -0.087600
     18 C15          4.0190    -2.1970    -3.0430 c3         1 MOL      -0.029200
     19 C16          2.5850    -2.1680    -3.5310 cc         1 MOL      -0.177400
     20 C17          1.5610    -2.6800    -2.8330 cd         1 MOL       0.040900
     21 C18          2.3450    -1.6190    -4.8970 c          1 MOL       0.579900
     22 C19          0.1630    -2.6670    -3.3370 c          1 MOL       0.557900
     23 C20          0.9590    -1.5600    -5.4040 ca         1 MOL      -0.123600
     24 O4           3.2700    -1.2260    -5.5990 o          1 MOL      -0.514100
     25 O5          -0.7250    -3.1510    -2.6430 o          1 MOL      -0.524100
     26 C21         -0.0950    -2.0660    -4.6510 ca         1 MOL      -0.138600
     27 C22          0.7060    -0.9920    -6.6600 ca         1 MOL      -0.088000
     28 C23         -1.4060    -2.0070    -5.1430 ca         1 MOL      -0.077000
     29 C24         -0.6010    -0.9330    -7.1520 ca         1 MOL      -0.107000
     30 C25         -1.6550    -1.4400    -6.3930 ca         1 MOL      -0.121000
     31 O6           1.7480    -3.2500    -1.5840 oh         1 MOL      -0.484100
     32 H1           6.2580    -5.2430    -5.0290 ha         1 MOL       0.151000
     33 H2           7.4270    -8.4060    -2.4990 hc         1 MOL       0.053367
     34 H3           6.6580    -8.9360    -4.0330 hc         1 MOL       0.053367
     35 H4           8.3600    -8.3610    -4.0330 hc         1 MOL       0.053367
     36 H5           7.3970    -7.7630    -6.3430 hc         1 MOL       0.061200
     37 H6           5.6360    -7.3660    -6.5880 hc         1 MOL       0.061200
     38 H7           7.5760    -5.1630    -7.0870 hc         1 MOL       0.048700
     39 H8           7.5670    -6.5780    -8.2550 hc         1 MOL       0.048700
     40 H9           4.2050    -4.0170    -8.2220 ha         1 MOL       0.119000
     41 H10          5.3400    -4.0490    -6.6910 ha         1 MOL       0.119000
     42 H11          4.9790    -6.9780    -9.4050 h1         1 MOL       0.032700
     43 H12          3.9260    -4.5350    -9.7440 hc         1 MOL       0.047033
     44 H13          5.1510    -4.4620   -11.0550 hc         1 MOL       0.047033
     45 H14          3.9110    -5.7620   -11.0550 hc         1 MOL       0.047033
     46 H15          7.4380    -6.3500    -9.7390 ho         1 MOL       0.400000
     47 H16          4.9360    -3.7720    -1.3990 h1         1 MOL       0.070200
     48 H17          6.5700    -3.6820    -2.1570 h1         1 MOL       0.070200
     49 H18          3.6000    -5.0890    -3.6250 hc         1 MOL       0.040867
     50 H19          3.3740    -3.9100    -4.9610 hc         1 MOL       0.040867
     51 H20          4.7980    -5.0040    -4.9610 hc         1 MOL       0.040867
     52 H21          6.8830    -2.4780    -3.8200 hc         1 MOL       0.040867
     53 H22          6.4230    -3.6740    -5.0790 hc         1 MOL       0.040867
     54 H23          5.6800    -2.0380    -5.0790 hc         1 MOL       0.040867
     55 H24          3.9930    -2.2430    -1.9440 hc         1 MOL       0.070700
     56 H25          4.4780    -1.2900    -3.4640 hc         1 MOL       0.070700
     57 H26          1.5370    -0.5920    -7.2590 ha         1 MOL       0.164000
     58 H27         -2.2370    -2.4070    -4.5440 ha         1 MOL       0.160000
     59 H28         -0.7980    -0.4870    -8.1380 ha         1 MOL       0.144000
     60 H29         -2.6830    -1.3930    -6.7800 ha         1 MOL       0.145000
     61 H30          0.9750    -3.6210    -1.0890 ho         1 MOL       0.446000
@<TRIPOS>BOND
     1     1     3 1   
     2     1    13 1   
     3     1     2 2   
     4     3     4 2   
     5     3     5 1   
     6     4     6 1   
     7     6     7 1   
     8     7     8 1   
     9     8    10 1   
    10     8     9 2   
    11    10    11 1   
    12    10    12 1   
    13    13    14 1   
    14    14    15 1   
    15    15    17 1   
    16    15    16 1   
    17    15    18 1   
    18    18    19 1   
    19    19    21 1   
    20    19    20 2   
    21    20    22 1   
    22    20    31 1   
    23    21    24 2   
    24    21    23 1   
    25    22    26 1   
    26    22    25 2   
    27    23    27 ar  
    28    23    26 ar  
    29    26    28 ar  
    30    27    29 ar  
    31    28    30 ar  
    32    29    30 ar  
    33     4    32 1   
    34     5    33 1   
    35     5    34 1   
    36     5    35 1   
    37     6    36 1   
    38     6    37 1   
    39     7    38 1   
    40     7    39 1   
    41     9    40 1   
    42     9    41 1   
    43    10    42 1   
    44    11    43 1   
    45    11    44 1   
    46    11    45 1   
    47    12    46 1   
    48    14    47 1   
    49    14    48 1   
    50    16    49 1   
    51    16    50 1   
    52    16    51 1   
    53    17    52 1   
    54    17    53 1   
    55    17    54 1   
    56    18    55 1   
    57    18    56 1   
    58    27    57 1   
    59    28    58 1   
    60    29    59 1   
    61    30    60 1   
    62    31    61 1   
@<TRIPOS>SUBSTRUCTURE
     1 MOL         1 TEMP              0 ****  ****    0 ROOT
