@<TRIPOS>MOLECULE
MOL
   39    40     1     0     0
SMALL
bcc


@<TRIPOS>ATOM
      1 C1          5.1500   -2.9060   -5.1930 c3       1 MOL     -0.030501000
      2 C2           6.2040    -3.1780    -4.1070 c3         1 MOL      -0.087100
      3 C3           5.2320    -3.9550    -6.3290 c3         1 MOL      -0.038200
      4 C4           6.2060    -5.0790    -6.0720 c2         1 MOL      -0.184200
      5 C5           6.6470    -6.0090    -6.9430 c2         1 MOL      -0.106400
      6 C6           6.2300    -6.1260    -8.3830 c3         1 MOL      -0.062400
      7 C7           7.6410    -7.0550    -6.5050 c3         1 MOL      -0.062400
      8 C8           3.7260    -2.7540    -4.6690 cc         1 MOL      -0.118400
      9 C9           3.2770    -3.2510    -3.5060 cd         1 MOL      -0.195200
     10 C10          2.7880    -1.9850    -5.5370 c          1 MOL       0.570900
     11 C11          1.8850    -3.0990    -3.0530 c          1 MOL       0.568900
     12 C12          1.3770    -1.8460    -5.1300 ca         1 MOL      -0.133600
     13 O1           3.1630    -1.4670    -6.5860 o          1 MOL      -0.484100
     14 O2           1.5250    -3.5610    -1.9750 o          1 MOL      -0.485100
     15 C13          0.9370    -2.3890    -3.9220 ca         1 MOL      -0.133600
     16 C14          0.4620    -1.1700    -5.9520 ca         1 MOL       0.134100
     17 C15         -0.4070    -2.2510    -3.5430 ca         1 MOL       0.135100
     18 C16         -0.8730    -1.0390    -5.5730 ca         1 MOL      -0.163000
     19 C17         -1.3090    -1.5800    -4.3650 ca         1 MOL      -0.163000
     20 O3           0.8040    -0.6080    -7.1530 oh         1 MOL      -0.463100
     21 O4          -0.9120    -2.7530    -2.3750 oh         1 MOL      -0.461100
     22 H1           5.4050    -1.9190    -5.6060 hc         1 MOL       0.085700
     23 H2           5.7460    -3.0600    -3.1140 hc         1 MOL       0.040033
     24 H3           6.5850    -4.2040    -4.2150 hc         1 MOL       0.040033
     25 H4           7.0340    -2.4650    -4.2150 hc         1 MOL       0.040033
     26 H5           4.2320    -4.3910    -6.4670 hc         1 MOL       0.047200
     27 H6           5.5950    -3.4230    -7.2210 hc         1 MOL       0.047200
     28 H7           6.6050    -5.1480    -5.0490 ha         1 MOL       0.120000
     29 H8           5.1720    -6.4230    -8.4350 hc         1 MOL       0.042867
     30 H9           6.3640    -5.1560    -8.8830 hc         1 MOL       0.042867
     31 H10          6.8490    -6.8850    -8.8830 hc         1 MOL       0.042867
     32 H11          7.6750    -7.0910    -5.4060 hc         1 MOL       0.042867
     33 H12          7.3350    -8.0370    -6.8950 hc         1 MOL       0.042867
     34 H13          8.6370    -6.8000    -6.8950 hc         1 MOL       0.042867
     35 H14          3.9820    -3.7970    -2.8620 ha         1 MOL       0.159000
     36 H15         -1.5810    -0.5090    -6.2270 ha         1 MOL       0.144000
     37 H16         -2.3610    -1.4770    -4.0620 ha         1 MOL       0.144000
     38 H17          0.1190    -0.1420    -7.6940 ho         1 MOL       0.419000
     39 H18         -1.8690    -2.6280    -2.1550 ho         1 MOL       0.419000
@<TRIPOS>BOND
     1     1     3 1   
     2     1     8 1   
     3     1     2 1   
     4     3     4 1   
     5     4     5 2   
     6     5     6 1   
     7     5     7 1   
     8     8    10 1   
     9     8     9 2   
    10     9    11 1   
    11    10    13 2   
    12    10    12 1   
    13    11    15 1   
    14    11    14 2   
    15    12    16 ar  
    16    12    15 ar  
    17    15    17 ar  
    18    16    20 1   
    19    16    18 ar  
    20    17    19 ar  
    21    17    21 1   
    22    18    19 ar  
    23     1    22 1   
    24     2    23 1   
    25     2    24 1   
    26     2    25 1   
    27     3    26 1   
    28     3    27 1   
    29     4    28 1   
    30     6    29 1   
    31     6    30 1   
    32     6    31 1   
    33     7    32 1   
    34     7    33 1   
    35     7    34 1   
    36     9    35 1   
    37    18    36 1   
    38    19    37 1   
    39    20    38 1   
    40    21    39 1   
@<TRIPOS>SUBSTRUCTURE
     1 MOL         1 TEMP              0 ****  ****    0 ROOT
