@<TRIPOS>MOLECULE
MOL
   51    52     1     0     0
SMALL
bcc


@<TRIPOS>ATOM
      1 C1          5.0810   -4.0660   -5.2810 c3       1 MOL      0.234999000
      2 C2           6.2180    -3.1980    -4.6880 c3         1 MOL      -0.125100
      3 C3           5.0530    -5.4600    -4.5610 c3         1 MOL      -0.057200
      4 C4           5.9990    -5.6300    -3.3920 c2         1 MOL      -0.190200
      5 C5           6.9130    -6.6030    -3.2080 c2         1 MOL      -0.100400
      6 C6           7.7570    -6.6360    -1.9590 c3         1 MOL      -0.065900
      7 C7           7.2070    -7.7220    -4.1710 c3         1 MOL      -0.065900
      8 O1           5.2690    -4.3070    -6.7090 os         1 MOL      -0.461900
      9 C8           6.2090    -5.1680    -7.1670 c          1 MOL       0.648100
     10 O2           7.3020    -5.3700    -6.6570 o          1 MOL      -0.540000
     11 C9           5.7170    -5.9060    -8.3970 c3         1 MOL      -0.109700
     12 C10          4.9440    -4.9590    -9.3070 c3         1 MOL      -0.093100
     13 C11          6.8660    -6.5870    -9.1320 c3         1 MOL      -0.093100
     14 C12          3.7490    -3.2860    -5.2230 cc         1 MOL      -0.136400
     15 C13          3.1510    -2.6850    -6.2630 cd         1 MOL      -0.173200
     16 C14          3.1180    -3.1160    -3.8680 c          1 MOL       0.584900
     17 C15          1.8800    -1.9530    -6.1610 c          1 MOL       0.568900
     18 C16          1.7110    -2.6380    -3.7890 ca         1 MOL      -0.134600
     19 O3           3.7690    -3.3250    -2.8520 o          1 MOL      -0.485100
     20 O4           1.4380    -1.3340    -7.1230 o          1 MOL      -0.482100
     21 C17          1.1340    -2.0270    -4.9020 ca         1 MOL      -0.136600
     22 C18          0.9520    -2.7470    -2.6110 ca         1 MOL       0.135100
     23 C19         -0.1650    -1.5010    -4.8260 ca         1 MOL       0.138100
     24 C20         -0.3450    -2.2290    -2.5410 ca         1 MOL      -0.160000
     25 C21         -0.9010    -1.5980    -3.6510 ca         1 MOL      -0.163000
     26 O5           1.4480    -3.3930    -1.5140 oh         1 MOL      -0.470100
     27 O6          -0.7870    -0.8780    -5.8750 oh         1 MOL      -0.465100
     28 H1           6.1710    -3.2330    -3.5900 hc         1 MOL       0.066033
     29 H2           7.1900    -3.5860    -5.0270 hc         1 MOL       0.066033
     30 H3           6.1000    -2.1580    -5.0270 hc         1 MOL       0.066033
     31 H4           4.0300    -5.6260    -4.1910 hc         1 MOL       0.060700
     32 H5           5.3860    -6.1870    -5.3160 hc         1 MOL       0.060700
     33 H6           5.9330    -4.8700    -2.5990 ha         1 MOL       0.140000
     34 H7           7.1040    -6.6110    -1.0740 hc         1 MOL       0.044200
     35 H8           8.3560    -7.5580    -1.9460 hc         1 MOL       0.044200
     36 H9           8.4270    -5.7630    -1.9460 hc         1 MOL       0.044200
     37 H10          7.4470    -8.6360    -3.6080 hc         1 MOL       0.044200
     38 H11          6.3260    -7.9020    -4.8040 hc         1 MOL       0.044200
     39 H12          8.0630    -7.4460    -4.8040 hc         1 MOL       0.044200
     40 H13          5.0300    -6.7020    -8.0740 hc         1 MOL       0.078700
     41 H14          4.3660    -4.2510    -8.6940 hc         1 MOL       0.048367
     42 H15          5.6500    -4.4030    -9.9420 hc         1 MOL       0.048367
     43 H16          4.2580    -5.5390    -9.9420 hc         1 MOL       0.048367
     44 H17          7.5720    -7.0060    -8.4000 hc         1 MOL       0.048367
     45 H18          6.4690    -7.3960    -9.7630 hc         1 MOL       0.048367
     46 H19          7.3850    -5.8510    -9.7630 hc         1 MOL       0.048367
     47 H20          3.6390    -2.7430    -7.2470 ha         1 MOL       0.174000
     48 H21         -0.9250    -2.3200    -1.6110 ha         1 MOL       0.144000
     49 H22         -1.9170    -1.1790    -3.5980 ha         1 MOL       0.144000
     50 H23          0.9020    -3.4620    -0.6910 ho         1 MOL       0.422000
     51 H24         -1.7060    -0.5250    -5.7670 ho         1 MOL       0.421000
@<TRIPOS>BOND
     1     1     8 1   
     2     1    14 1   
     3     1     2 1   
     4     1     3 1   
     5     3     4 1   
     6     4     5 2   
     7     5     7 1   
     8     5     6 1   
     9     8     9 1   
    10     9    11 1   
    11     9    10 2   
    12    11    12 1   
    13    11    13 1   
    14    14    15 2   
    15    14    16 1   
    16    15    17 1   
    17    16    18 1   
    18    16    19 2   
    19    17    20 2   
    20    17    21 1   
    21    18    21 ar  
    22    18    22 ar  
    23    21    23 ar  
    24    22    24 ar  
    25    22    26 1   
    26    23    27 1   
    27    23    25 ar  
    28    24    25 ar  
    29     2    28 1   
    30     2    29 1   
    31     2    30 1   
    32     3    31 1   
    33     3    32 1   
    34     4    33 1   
    35     6    34 1   
    36     6    35 1   
    37     6    36 1   
    38     7    37 1   
    39     7    38 1   
    40     7    39 1   
    41    11    40 1   
    42    12    41 1   
    43    12    42 1   
    44    12    43 1   
    45    13    44 1   
    46    13    45 1   
    47    13    46 1   
    48    15    47 1   
    49    24    48 1   
    50    25    49 1   
    51    26    50 1   
    52    27    51 1   
@<TRIPOS>SUBSTRUCTURE
     1 MOL         1 TEMP              0 ****  ****    0 ROOT
