@<TRIPOS>MOLECULE
MOL
   51    54     1     0     0
SMALL
bcc


@<TRIPOS>ATOM
      1 C1         -1.8370   -0.7980   -4.1900 c3       1 MOL      0.159602000
      2 C2          -0.5310    -1.5220    -4.0860 cc         1 MOL      -0.175400
      3 C3           6.9730    -6.1150    -6.6240 c6         1 MOL      -0.041000
      4 C4           7.3050    -6.7450    -5.2460 c6         1 MOL      -0.071400
      5 C5           5.6050    -5.3380    -6.5760 c6         1 MOL      -0.044700
      6 C6           6.0540    -7.0890    -4.4530 c6         1 MOL      -0.074400
      7 C7           5.4310    -4.3130    -7.7060 c6         1 MOL      -0.075400
      8 C8           5.2460    -4.7110    -5.1850 c6         1 MOL       0.005300
      9 C9           5.1880    -5.8660    -4.1350 c6         1 MOL      -0.073400
     10 C10          3.9720    -3.8820    -7.8100 c6         1 MOL      -0.042100
     11 C11          3.8870    -3.9720    -5.2550 ca         1 MOL      -0.049300
     12 C12          3.3310    -3.5640    -6.4850 ca         1 MOL      -0.055300
     13 C13          3.2010    -3.6360    -4.0680 ca         1 MOL      -0.083000
     14 C14          2.1020    -2.8750    -6.5030 ca         1 MOL      -0.085000
     15 C15          1.9840    -2.9420    -4.1000 ca         1 MOL      -0.139600
     16 C16          1.4330    -2.5650    -5.3160 ca         1 MOL      -0.138600
     17 C17          1.2950    -2.6190    -2.8370 c          1 MOL       0.565900
     18 C18          0.1500    -1.8360    -5.3670 c          1 MOL       0.573900
     19 C19          0.0150    -1.8910    -2.9200 cd         1 MOL      -0.177200
     20 O1           1.7510    -2.9400    -1.7480 o          1 MOL      -0.512100
     21 O2          -0.3400    -1.4860    -6.4360 o          1 MOL      -0.518100
     22 C20          8.1690    -5.2500    -7.0760 c3         1 MOL      -0.089100
     23 C21          6.8440    -7.2620    -7.6610 c3         1 MOL      -0.089100
     24 C22          6.2660    -3.6430    -4.7170 c3         1 MOL      -0.087100
     25 O3          -2.8160    -1.6450    -4.7760 oh         1 MOL      -0.589800
     26 H1          -1.7080     0.0980    -4.8160 h1         1 MOL       0.075700
     27 H2          -2.1690    -0.5050    -3.1830 h1         1 MOL       0.075700
     28 H3           7.8850    -7.6650    -5.4080 hc         1 MOL       0.042700
     29 H4           7.8780    -6.0060    -4.6670 hc         1 MOL       0.042700
     30 H5           4.8700    -6.1390    -6.7450 hc         1 MOL       0.052700
     31 H6           5.4530    -7.8010    -5.0380 hc         1 MOL       0.041700
     32 H7           6.3810    -7.5170    -3.4940 hc         1 MOL       0.041700
     33 H8           6.0560    -3.4320    -7.4960 hc         1 MOL       0.049700
     34 H9           5.7370    -4.7740    -8.6570 hc         1 MOL       0.049700
     35 H10          4.1430    -6.2010    -4.0570 hc         1 MOL       0.046200
     36 H11          5.5890    -5.4460    -3.2010 hc         1 MOL       0.046200
     37 H12          3.9210    -2.9840    -8.4430 hc         1 MOL       0.057200
     38 H13          3.4190    -4.7320    -8.2350 hc         1 MOL       0.057200
     39 H14          3.6310    -3.9250    -3.0980 ha         1 MOL       0.161000
     40 H15          1.6630    -2.5770    -7.4660 ha         1 MOL       0.158000
     41 H16         -0.5120    -1.6410    -1.9870 ha         1 MOL       0.168000
     42 H17          8.6990    -4.8670    -6.1920 hc         1 MOL       0.035533
     43 H18          8.8560    -5.8610    -7.6790 hc         1 MOL       0.035533
     44 H19          7.8040    -4.4060    -7.6790 hc         1 MOL       0.035533
     45 H20          6.7360    -8.2220    -7.1350 hc         1 MOL       0.035533
     46 H21          5.9600    -7.0880    -8.2920 hc         1 MOL       0.035533
     47 H22          7.7450    -7.2890    -8.2920 hc         1 MOL       0.035533
     48 H23          6.2910    -3.6170    -3.6180 hc         1 MOL       0.041700
     49 H24          7.2650    -3.8970    -5.1010 hc         1 MOL       0.041700
     50 H25          5.9660    -2.6570    -5.1010 hc         1 MOL       0.041700
     51 H26         -3.3340    -2.0940    -4.0620 ho         1 MOL       0.402000
@<TRIPOS>BOND
     1     1    25 1   
     2     1     2 1   
     3     2    18 1   
     4     2    19 2   
     5     3    23 1   
     6     3    22 1   
     7     3     5 1   
     8     3     4 1   
     9     4     6 1   
    10     5     7 1   
    11     5     8 1   
    12     6     9 1   
    13     7    10 1   
    14     8    11 1   
    15     8    24 1   
    16     8     9 1   
    17    10    12 1   
    18    11    12 ar  
    19    11    13 ar  
    20    12    14 ar  
    21    13    15 ar  
    22    14    16 ar  
    23    15    16 ar  
    24    15    17 1   
    25    16    18 1   
    26    17    19 1   
    27    17    20 2   
    28    18    21 2   
    29     1    26 1   
    30     1    27 1   
    31     4    28 1   
    32     4    29 1   
    33     5    30 1   
    34     6    31 1   
    35     6    32 1   
    36     7    33 1   
    37     7    34 1   
    38     9    35 1   
    39     9    36 1   
    40    10    37 1   
    41    10    38 1   
    42    13    39 1   
    43    14    40 1   
    44    19    41 1   
    45    22    42 1   
    46    22    43 1   
    47    22    44 1   
    48    23    45 1   
    49    23    46 1   
    50    23    47 1   
    51    24    48 1   
    52    24    49 1   
    53    24    50 1   
    54    25    51 1   
@<TRIPOS>SUBSTRUCTURE
     1 MOL         1 TEMP              0 ****  ****    0 ROOT
