@<TRIPOS>MOLECULE
MOL
   61    62     1     0     0
SMALL
bcc


@<TRIPOS>ATOM
      1 C1          6.0650   -6.1710   -4.8660 c        1 MOL      0.638302000
      2 O1           6.2490    -6.8020    -3.8340 o          1 MOL      -0.544000
      3 C2           6.6660    -6.5590    -6.1810 ce         1 MOL      -0.166400
      4 C3           6.2220    -6.0170    -7.3340 c2         1 MOL      -0.099200
      5 C4           7.7610    -7.5800    -6.0690 c3         1 MOL      -0.060900
      6 C5           6.7370    -6.2920    -8.7170 c3         1 MOL      -0.065200
      7 C6           5.6660    -6.3830    -9.8110 c3         1 MOL      -0.099400
      8 C7           4.8430    -5.1130   -10.1350 c3         1 MOL       0.182000
      9 C8           3.5640    -5.4330   -10.9190 c3         1 MOL      -0.081100
     10 C9           4.6520    -4.2440    -8.9140 c2         1 MOL      -0.198200
     11 C10          3.4990    -3.9100    -8.3150 c2         1 MOL      -0.209000
     12 O2           5.6620    -4.3380   -11.0280 oh         1 MOL      -0.594800
     13 O3           5.2770    -5.0720    -4.9860 os         1 MOL      -0.442900
     14 C11          4.6040    -4.6800    -3.7780 c3         1 MOL       0.140400
     15 C12          5.2820    -3.4260    -3.1730 c3         1 MOL      -0.062000
     16 C13          6.2820    -2.8400    -4.1860 c3         1 MOL      -0.087100
     17 C14          6.0770    -3.8330    -1.9120 c3         1 MOL      -0.087100
     18 C15          4.2170    -2.3700    -2.7460 c3         1 MOL      -0.029200
     19 C16          2.8650    -2.4380    -3.4260 cc         1 MOL      -0.178400
     20 C17          1.7660    -2.9150    -2.8240 cd         1 MOL       0.040900
     21 C18          2.7630    -1.8600    -4.7970 c          1 MOL       0.579900
     22 C19          0.4400    -2.9540    -3.4920 c          1 MOL       0.557900
     23 C20          1.4630    -1.9230    -5.4970 ca         1 MOL      -0.124600
     24 O4           3.7260    -1.3400    -5.3460 o          1 MOL      -0.514100
     25 O5          -0.5250    -3.4010    -2.8800 o          1 MOL      -0.523100
     26 C21          0.3410    -2.4530    -4.8680 ca         1 MOL      -0.138600
     27 C22          1.3570    -1.4360    -6.8080 ca         1 MOL      -0.088000
     28 C23         -0.8860    -2.5070    -5.5400 ca         1 MOL      -0.077000
     29 C24          0.1340    -1.4880    -7.4780 ca         1 MOL      -0.107000
     30 C25         -0.9860    -2.0250    -6.8460 ca         1 MOL      -0.121000
     31 O6           1.8110    -3.4200    -1.5350 oh         1 MOL      -0.484100
     32 H1           5.3940    -5.2970    -7.2520 ha         1 MOL       0.155000
     33 H2           7.9720    -7.7770    -5.0070 hc         1 MOL       0.054033
     34 H3           7.4440    -8.5130    -6.5590 hc         1 MOL       0.054033
     35 H4           8.6690    -7.1990    -6.5590 hc         1 MOL       0.054033
     36 H5           7.4310    -5.4830    -8.9880 hc         1 MOL       0.064700
     37 H6           7.2110    -7.2840    -8.6730 hc         1 MOL       0.064700
     38 H7           6.1720    -6.6890   -10.7380 hc         1 MOL       0.053700
     39 H8           4.9270    -7.0930    -9.4110 hc         1 MOL       0.053700
     40 H9           2.7440    -5.6380   -10.2150 hc         1 MOL       0.047033
     41 H10          3.2970    -4.5740   -11.5520 hc         1 MOL       0.047033
     42 H11          3.7330    -6.3160   -11.5520 hc         1 MOL       0.047033
     43 H12          5.5680    -3.8360    -8.4620 ha         1 MOL       0.131000
     44 H13          3.5090    -3.2640    -7.4250 ha         1 MOL       0.115000
     45 H14          2.5440    -4.2820    -8.7140 ha         1 MOL       0.115000
     46 H15          6.2710    -3.7620   -10.5010 ho         1 MOL       0.402000
     47 H16          3.5530    -4.4510    -4.0050 h1         1 MOL       0.071200
     48 H17          4.6590    -5.5040    -3.0520 h1         1 MOL       0.071200
     49 H18          7.1090    -2.3550    -3.6460 hc         1 MOL       0.040200
     50 H19          6.6800    -3.6480    -4.8180 hc         1 MOL       0.040200
     51 H20          5.7720    -2.0980    -4.8180 hc         1 MOL       0.040200
     52 H21          5.5120    -3.5440    -1.0130 hc         1 MOL       0.040200
     53 H22          6.2330    -4.9220    -1.9130 hc         1 MOL       0.040200
     54 H23          7.0520    -3.3230    -1.9130 hc         1 MOL       0.040200
     55 H24          4.0500    -2.4860    -1.6650 hc         1 MOL       0.070700
     56 H25          4.6400    -1.4010    -3.0500 hc         1 MOL       0.070700
     57 H26          2.2400    -1.0120    -7.3090 ha         1 MOL       0.164000
     58 H27         -1.7700    -2.9290    -5.0390 ha         1 MOL       0.160000
     59 H28          0.0540    -1.1050    -8.5060 ha         1 MOL       0.145000
     60 H29         -1.9490    -2.0690    -7.3760 ha         1 MOL       0.145000
     61 H30          0.9870    -3.7670    -1.1100 ho         1 MOL       0.446000
@<TRIPOS>BOND
     1     1     3 1   
     2     1    13 1   
     3     1     2 2   
     4     3     4 2   
     5     3     5 1   
     6     4     6 1   
     7     6     7 1   
     8     7     8 1   
     9     8    12 1   
    10     8     9 1   
    11     8    10 1   
    12    10    11 2   
    13    13    14 1   
    14    14    15 1   
    15    15    16 1   
    16    15    18 1   
    17    15    17 1   
    18    18    19 1   
    19    19    21 1   
    20    19    20 2   
    21    20    22 1   
    22    20    31 1   
    23    21    23 1   
    24    21    24 2   
    25    22    26 1   
    26    22    25 2   
    27    23    27 ar  
    28    23    26 ar  
    29    26    28 ar  
    30    27    29 ar  
    31    28    30 ar  
    32    29    30 ar  
    33     4    32 1   
    34     5    33 1   
    35     5    34 1   
    36     5    35 1   
    37     6    36 1   
    38     6    37 1   
    39     7    38 1   
    40     7    39 1   
    41     9    40 1   
    42     9    41 1   
    43     9    42 1   
    44    10    43 1   
    45    11    44 1   
    46    11    45 1   
    47    12    46 1   
    48    14    47 1   
    49    14    48 1   
    50    16    49 1   
    51    16    50 1   
    52    16    51 1   
    53    17    52 1   
    54    17    53 1   
    55    17    54 1   
    56    18    55 1   
    57    18    56 1   
    58    27    57 1   
    59    28    58 1   
    60    29    59 1   
    61    30    60 1   
    62    31    61 1   
@<TRIPOS>SUBSTRUCTURE
     1 MOL         1 TEMP              0 ****  ****    0 ROOT
