@<TRIPOS>MOLECULE
MOL
   61    62     1     0     0
SMALL
bcc


@<TRIPOS>ATOM
      1 C1          7.0290   -6.3490   -2.4950 c        1 MOL      0.641299000
      2 O1           7.9940    -6.1730    -1.7680 o          1 MOL      -0.545000
      3 C2           7.0610    -7.1360    -3.7570 ce         1 MOL      -0.170400
      4 C3           6.9250    -6.4340    -4.8970 c2         1 MOL      -0.087200
      5 C4           7.2400    -8.6180    -3.6460 c3         1 MOL      -0.058900
      6 C5           6.8380    -6.9860    -6.2960 c3         1 MOL      -0.057200
      7 C6           7.0800    -5.9100    -7.3670 c3         1 MOL      -0.037200
      8 C7           5.8370    -5.3960    -8.0730 c2         1 MOL      -0.159400
      9 C8           5.0840    -4.4340    -7.5070 c2         1 MOL      -0.206000
     10 C9           5.4780    -5.9550    -9.4320 c3         1 MOL       0.177300
     11 C10          4.8400    -4.9360   -10.3670 c3         1 MOL      -0.088100
     12 O2           6.6480    -6.4840   -10.0380 oh         1 MOL      -0.597800
     13 O3           5.7910    -5.8080    -2.3310 os         1 MOL      -0.441900
     14 C11          5.7410    -4.3850    -2.1370 c3         1 MOL       0.139400
     15 C12          5.0360    -3.6670    -3.3160 c3         1 MOL      -0.064000
     16 C13          6.1290    -2.9820    -4.1660 c3         1 MOL      -0.085100
     17 C14          4.3050    -4.6800    -4.2170 c3         1 MOL      -0.085100
     18 C15          4.0540    -2.5510    -2.8390 c3         1 MOL      -0.023200
     19 C16          2.6880    -2.4580    -3.4910 cc         1 MOL      -0.217400
     20 C17          2.4190    -1.9200    -4.6970 cd         1 MOL       0.173900
     21 C18          1.5420    -2.8870    -2.6310 c          1 MOL       0.492300
     22 C19          1.0460    -1.7600    -5.2210 ca         1 MOL      -0.062800
     23 C20          0.1590    -2.9580    -3.2500 c          1 MOL       0.483700
     24 O4           1.6890    -3.1600    -1.4470 o          1 MOL      -0.474100
     25 C21          0.8000    -1.0860    -6.4300 ca         1 MOL      -0.130000
     26 C22         -0.0550    -2.2740    -4.5320 ca         1 MOL      -0.147600
     27 O5          -0.7500    -3.5540    -2.6870 o          1 MOL      -0.469100
     28 C23         -0.5000    -0.9410    -6.9310 ca         1 MOL      -0.099000
     29 C24         -1.3600    -2.1420    -5.0320 ca         1 MOL      -0.070000
     30 C25         -1.5800    -1.4720    -6.2330 ca         1 MOL      -0.126000
     31 O6           3.3980    -1.4440    -5.5490 oh         1 MOL      -0.487100
     32 H1           6.8720    -5.3400    -4.7970 ha         1 MOL       0.149000
     33 H2           7.2750    -8.9050    -2.5850 hc         1 MOL       0.053033
     34 H3           6.3970    -9.1270    -4.1360 hc         1 MOL       0.053033
     35 H4           8.1800    -8.9120    -4.1360 hc         1 MOL       0.053033
     36 H5           7.5950    -7.7760    -6.4120 hc         1 MOL       0.062700
     37 H6           5.8200    -7.3780    -6.4390 hc         1 MOL       0.062700
     38 H7           7.5720    -5.0540    -6.8820 hc         1 MOL       0.054200
     39 H8           7.6910    -6.3910    -8.1450 hc         1 MOL       0.054200
     40 H9           4.1850    -4.0650    -8.0220 ha         1 MOL       0.117500
     41 H10          5.3680    -4.0170    -6.5290 ha         1 MOL       0.117500
     42 H11          4.7230    -6.7370    -9.2650 h1         1 MOL       0.035700
     43 H12          4.3480    -4.1510    -9.7730 hc         1 MOL       0.046700
     44 H13          5.6170    -4.4840   -11.0010 hc         1 MOL       0.046700
     45 H14          4.0940    -5.4370   -11.0010 hc         1 MOL       0.046700
     46 H15          7.2830    -6.7710    -9.3350 ho         1 MOL       0.401000
     47 H16          5.1900    -4.1710    -1.2090 h1         1 MOL       0.070200
     48 H17          6.7740    -4.0120    -2.0780 h1         1 MOL       0.070200
     49 H18          6.8720    -2.5160    -3.5020 hc         1 MOL       0.039367
     50 H19          6.6240    -3.7320    -4.8010 hc         1 MOL       0.039367
     51 H20          5.6700    -2.2100    -4.8010 hc         1 MOL       0.039367
     52 H21          3.7760    -5.4130    -3.5900 hc         1 MOL       0.039367
     53 H22          3.5800    -4.1500    -4.8520 hc         1 MOL       0.039367
     54 H23          5.0370    -5.2010    -4.8520 hc         1 MOL       0.039367
     55 H24          3.8890    -2.7030    -1.7620 hc         1 MOL       0.068700
     56 H25          4.5530    -1.6140    -3.1270 hc         1 MOL       0.068700
     57 H26          1.6450    -0.6640    -6.9940 ha         1 MOL       0.138000
     58 H27         -0.6670    -0.4060    -7.8780 ha         1 MOL       0.143000
     59 H28         -2.2080    -2.5670    -4.4760 ha         1 MOL       0.161000
     60 H29         -2.6010    -1.3630    -6.6270 ha         1 MOL       0.146000
     61 H30          3.1470    -1.0580    -6.4250 ho         1 MOL       0.426000
@<TRIPOS>BOND
     1     1     3 1   
     2     1    13 1   
     3     1     2 2   
     4     3     4 2   
     5     3     5 1   
     6     4     6 1   
     7     6     7 1   
     8     7     8 1   
     9     8    10 1   
    10     8     9 2   
    11    10    11 1   
    12    10    12 1   
    13    13    14 1   
    14    14    15 1   
    15    15    17 1   
    16    15    16 1   
    17    15    18 1   
    18    18    19 1   
    19    19    20 2   
    20    19    21 1   
    21    20    31 1   
    22    20    22 1   
    23    21    23 1   
    24    21    24 2   
    25    22    25 ar  
    26    22    26 ar  
    27    23    26 1   
    28    23    27 2   
    29    25    28 ar  
    30    26    29 ar  
    31    28    30 ar  
    32    29    30 ar  
    33     4    32 1   
    34     5    33 1   
    35     5    34 1   
    36     5    35 1   
    37     6    36 1   
    38     6    37 1   
    39     7    38 1   
    40     7    39 1   
    41     9    40 1   
    42     9    41 1   
    43    10    42 1   
    44    11    43 1   
    45    11    44 1   
    46    11    45 1   
    47    12    46 1   
    48    14    47 1   
    49    14    48 1   
    50    16    49 1   
    51    16    50 1   
    52    16    51 1   
    53    17    52 1   
    54    17    53 1   
    55    17    54 1   
    56    18    55 1   
    57    18    56 1   
    58    25    57 1   
    59    28    58 1   
    60    29    59 1   
    61    30    60 1   
    62    31    61 1   
@<TRIPOS>SUBSTRUCTURE
     1 MOL         1 TEMP              0 ****  ****    0 ROOT
