@<TRIPOS>MOLECULE
MOL
   38    39     1     0     0
SMALL
bcc


@<TRIPOS>ATOM
      1 O1          2.4650   -0.9110   -5.9290 o        1 MOL     -0.590103000
      2 N1           2.8180    -3.1830    -5.5650 ns         1 MOL      -0.560900
      3 C1           2.1330    -1.9910    -5.4440 c          1 MOL       0.695100
      4 C2           0.8680    -2.1460    -4.6450 cx         1 MOL      -0.164000
      5 C3          -0.3480    -1.4140    -5.1010 cx         1 MOL       0.103800
      6 C4          -0.2520    -2.9020    -5.2720 cx         1 MOL      -0.092700
      7 Cl1         -0.2610    -0.4280    -6.5680 cl         1 MOL      -0.087400
      8 Cl2         -1.4900    -0.7490    -3.9290 cl         1 MOL      -0.087400
      9 C5          -0.1110    -3.5110    -6.6210 c3         1 MOL      -0.082100
     10 C6           1.0950    -2.3600    -3.1870 c3         1 MOL      -0.060400
     11 C7           0.2980    -3.5400    -2.6490 c3         1 MOL      -0.097100
     12 C8           4.0600    -3.3080    -6.3090 c3         1 MOL       0.144000
     13 C9           3.7310    -3.4610    -7.8020 c3         1 MOL      -0.102100
     14 C10          4.9310    -4.3960    -5.7790 ca         1 MOL      -0.117300
     15 C11          4.7610    -4.8510    -4.4710 ca         1 MOL      -0.109500
     16 C12          5.9150    -4.9600    -6.5900 ca         1 MOL      -0.109500
     17 C13          5.5750    -5.8690    -3.9760 ca         1 MOL      -0.129000
     18 C14          6.7300    -5.9780    -6.0950 ca         1 MOL      -0.129000
     19 C15          6.5600    -6.4330    -4.7870 ca         1 MOL       0.021400
     20 Cl3          7.5640    -7.6890    -4.1760 cl         1 MOL      -0.094400
     21 H1           2.4320    -4.0210    -5.1080 hn         1 MOL       0.311500
     22 H2          -0.8710    -3.7630    -4.9780 hc         1 MOL       0.099700
     23 H3           0.1360    -4.5780    -6.5180 hc         1 MOL       0.052367
     24 H4          -1.0570    -3.4050    -7.1720 hc         1 MOL       0.052367
     25 H5           0.6930    -3.0000    -7.1720 hc         1 MOL       0.052367
     26 H6           2.1660    -2.5490    -3.0190 hc         1 MOL       0.068200
     27 H7           0.7610    -1.4560    -2.6570 hc         1 MOL       0.068200
     28 H8           0.3110    -3.5210    -1.5490 hc         1 MOL       0.040367
     29 H9          -0.7410    -3.4730    -3.0050 hc         1 MOL       0.040367
     30 H10          0.7480    -4.4790    -3.0050 hc         1 MOL       0.040367
     31 H11          4.6570    -2.3930    -6.1810 h1         1 MOL       0.093700
     32 H12          2.7390    -3.9220    -7.9130 hc         1 MOL       0.045367
     33 H13          3.7310    -2.4710    -8.2810 hc         1 MOL       0.045367
     34 H14          4.4880    -4.0990    -8.2810 hc         1 MOL       0.045367
     35 H15          3.9850    -4.4070    -3.8300 ha         1 MOL       0.148000
     36 H16          6.0490    -4.6020    -7.6210 ha         1 MOL       0.148000
     37 H17          5.4400    -6.2280    -2.9450 ha         1 MOL       0.148500
     38 H18          7.5060    -6.4220    -6.7360 ha         1 MOL       0.148500
@<TRIPOS>BOND
     1     1     3 2   
     2     2    12 1   
     3     2     3 1   
     4     3     4 1   
     5     4     6 1   
     6     4     5 1   
     7     4    10 1   
     8     5     7 1   
     9     5     6 1   
    10     5     8 1   
    11     6     9 1   
    12    10    11 1   
    13    12    13 1   
    14    12    14 1   
    15    14    16 ar  
    16    14    15 ar  
    17    15    17 ar  
    18    16    18 ar  
    19    17    19 ar  
    20    18    19 ar  
    21    19    20 1   
    22     2    21 1   
    23     6    22 1   
    24     9    23 1   
    25     9    24 1   
    26     9    25 1   
    27    10    26 1   
    28    10    27 1   
    29    11    28 1   
    30    11    29 1   
    31    11    30 1   
    32    12    31 1   
    33    13    32 1   
    34    13    33 1   
    35    13    34 1   
    36    15    35 1   
    37    16    36 1   
    38    17    37 1   
    39    18    38 1   
@<TRIPOS>SUBSTRUCTURE
     1 MOL         1 TEMP              0 ****  ****    0 ROOT
