@<TRIPOS>MOLECULE
MOL
   61    62     1     0     0
SMALL
bcc


@<TRIPOS>ATOM
      1 C1          6.8970   -6.1790   -2.5660 c        1 MOL      0.641301000
      2 O1           7.8450    -6.0540    -1.8020 o          1 MOL      -0.547000
      3 C2           6.9280    -7.0050    -3.8180 ce         1 MOL      -0.172400
      4 C3           6.6000    -6.3730    -4.9580 c2         1 MOL      -0.081200
      5 C4           7.3470    -8.4290    -3.6870 c3         1 MOL      -0.058900
      6 C5           6.5460    -6.9290    -6.3530 c3         1 MOL      -0.067200
      7 C6           6.9020    -5.8960    -7.4400 c3         1 MOL      -0.039200
      8 C7           5.7300    -5.2610    -8.1650 c2         1 MOL      -0.154400
      9 C8           4.8820    -4.4380    -7.5170 c2         1 MOL      -0.204000
     10 C9           5.5820    -5.5080    -9.6450 c3         1 MOL       0.174300
     11 C10          4.2400    -5.0770   -10.2300 c3         1 MOL      -0.126100
     12 O2           5.7820    -6.9010    -9.8690 oh         1 MOL      -0.596800
     13 O3           5.6850    -5.5910    -2.4220 os         1 MOL      -0.443900
     14 C11          5.6670    -4.1710    -2.2300 c3         1 MOL       0.141400
     15 C12          4.9610    -3.4400    -3.3920 c3         1 MOL      -0.062000
     16 C13          6.0320    -2.8510    -4.3450 c3         1 MOL      -0.087100
     17 C14          4.1620    -4.4770    -4.1970 c3         1 MOL      -0.087100
     18 C15          4.0460    -2.2540    -2.9330 c3         1 MOL      -0.029200
     19 C16          2.5950    -2.1960    -3.3730 cc         1 MOL      -0.177400
     20 C17          1.5570    -2.6290    -2.6410 cd         1 MOL       0.039900
     21 C18          2.3420    -1.6830    -4.7540 c          1 MOL       0.579900
     22 C19          0.1500    -2.5470    -3.1170 c          1 MOL       0.557900
     23 C20          0.9530    -1.5890    -5.2540 ca         1 MOL      -0.123600
     24 O4           3.2630    -1.3560    -5.4860 o          1 MOL      -0.514100
     25 O5          -0.7480    -2.9770    -2.3940 o          1 MOL      -0.524100
     26 C21         -0.1070    -1.9960    -4.4530 ca         1 MOL      -0.138600
     27 C22          0.7040    -1.0850    -6.5430 ca         1 MOL      -0.088000
     28 C23         -1.4230    -1.9010    -4.9260 ca         1 MOL      -0.077000
     29 C24         -0.6070    -0.9810    -7.0150 ca         1 MOL      -0.107000
     30 C25         -1.6700    -1.3820    -6.2030 ca         1 MOL      -0.121000
     31 O6           1.7320    -3.2140    -1.4000 oh         1 MOL      -0.484100
     32 H1           6.3370    -5.3100    -4.8560 ha         1 MOL       0.146000
     33 H2           7.4240    -8.6920    -2.6220 hc         1 MOL       0.053367
     34 H3           6.6010    -9.0770    -4.1710 hc         1 MOL       0.053367
     35 H4           8.3250    -8.5700    -4.1710 hc         1 MOL       0.053367
     36 H5           7.2560    -7.7660    -6.4220 hc         1 MOL       0.072700
     37 H6           5.5090    -7.2460    -6.5350 hc         1 MOL       0.072700
     38 H7           7.4790    -5.0900    -6.9620 hc         1 MOL       0.049700
     39 H8           7.4580    -6.4540    -8.2080 hc         1 MOL       0.049700
     40 H9           4.0370    -3.9850    -8.0550 ha         1 MOL       0.117000
     41 H10          5.0350    -4.2200    -6.4500 ha         1 MOL       0.117000
     42 H11          6.3300    -4.8880   -10.1600 h1         1 MOL       0.076700
     43 H12          3.5390    -4.8520    -9.4130 hc         1 MOL       0.044700
     44 H13          4.3810    -4.1790   -10.8500 hc         1 MOL       0.044700
     45 H14          3.8320    -5.8890   -10.8500 hc         1 MOL       0.044700
     46 H15          5.8490    -7.3690    -8.9990 ho         1 MOL       0.401000
     47 H16          5.1360    -3.9460    -1.2940 h1         1 MOL       0.069700
     48 H17          6.7090    -3.8200    -2.1900 h1         1 MOL       0.069700
     49 H18          6.8440    -2.4040    -3.7530 hc         1 MOL       0.040533
     50 H19          6.4390    -3.6520    -4.9790 hc         1 MOL       0.040533
     51 H20          5.5730    -2.0780    -4.9790 hc         1 MOL       0.040533
     52 H21          3.6400    -5.1550    -3.5060 hc         1 MOL       0.040533
     53 H22          3.4260    -3.9610    -4.8310 hc         1 MOL       0.040533
     54 H23          4.8490    -5.0570    -4.8310 hc         1 MOL       0.040533
     55 H24          4.0430    -2.2630    -1.8330 hc         1 MOL       0.070200
     56 H25          4.4950    -1.3830    -3.4330 hc         1 MOL       0.070200
     57 H26          1.5430    -0.7720    -7.1810 ha         1 MOL       0.164000
     58 H27         -2.2600    -2.2340    -4.2950 ha         1 MOL       0.160000
     59 H28         -0.8010    -0.5850    -8.0230 ha         1 MOL       0.144000
     60 H29         -2.7040    -1.2900    -6.5670 ha         1 MOL       0.144000
     61 H30          0.9460    -3.5240    -0.8830 ho         1 MOL       0.445000
@<TRIPOS>BOND
     1     1     3 1   
     2     1    13 1   
     3     1     2 2   
     4     3     4 2   
     5     3     5 1   
     6     4     6 1   
     7     6     7 1   
     8     7     8 1   
     9     8    10 1   
    10     8     9 2   
    11    10    11 1   
    12    10    12 1   
    13    13    14 1   
    14    14    15 1   
    15    15    16 1   
    16    15    17 1   
    17    15    18 1   
    18    18    19 1   
    19    19    21 1   
    20    19    20 2   
    21    20    22 1   
    22    20    31 1   
    23    21    24 2   
    24    21    23 1   
    25    22    26 1   
    26    22    25 2   
    27    23    27 ar  
    28    23    26 ar  
    29    26    28 ar  
    30    27    29 ar  
    31    28    30 ar  
    32    29    30 ar  
    33     4    32 1   
    34     5    33 1   
    35     5    34 1   
    36     5    35 1   
    37     6    36 1   
    38     6    37 1   
    39     7    38 1   
    40     7    39 1   
    41     9    40 1   
    42     9    41 1   
    43    10    42 1   
    44    11    43 1   
    45    11    44 1   
    46    11    45 1   
    47    12    46 1   
    48    14    47 1   
    49    14    48 1   
    50    16    49 1   
    51    16    50 1   
    52    16    51 1   
    53    17    52 1   
    54    17    53 1   
    55    17    54 1   
    56    18    55 1   
    57    18    56 1   
    58    27    57 1   
    59    28    58 1   
    60    29    59 1   
    61    30    60 1   
    62    31    61 1   
@<TRIPOS>SUBSTRUCTURE
     1 MOL         1 TEMP              0 ****  ****    0 ROOT
