@<TRIPOS>MOLECULE
MOL
   49    50     1     0     0
SMALL
bcc


@<TRIPOS>ATOM
      1 C1          5.4860   -4.0950   -6.2460 c2       1 MOL     -0.087399000
      2 C2           4.3530    -3.7940    -7.2010 c3         1 MOL      -0.071900
      3 C3           5.8330    -3.2780    -5.2290 c2         1 MOL      -0.188200
      4 C4           6.1840    -5.4190    -6.5500 c3         1 MOL      -0.044200
      5 C5           5.9310    -6.6400    -5.6390 c3         1 MOL      -0.041200
      6 C6           6.0940    -6.3270    -4.1700 c2         1 MOL      -0.173200
      7 C7           6.9220    -6.9230    -3.2880 c2         1 MOL      -0.126400
      8 C8           6.9340    -6.4940    -1.8420 c3         1 MOL      -0.057400
      9 C9           7.8990    -8.0210    -3.6170 c3         1 MOL      -0.057400
     10 C10          5.1910    -1.9730    -4.8220 c3         1 MOL      -0.012000
     11 C11          3.7860    -2.1110    -4.2640 cc         1 MOL      -0.139400
     12 C12          3.4710    -2.6610    -3.0720 cd         1 MOL      -0.119400
     13 C13          2.7090    -1.5590    -5.1420 c          1 MOL       0.575900
     14 C14          2.0510    -2.8150    -2.6460 c          1 MOL       0.578900
     15 C15          1.3030    -1.7490    -4.7510 ca         1 MOL      -0.064600
     16 O1           2.9640    -0.9450    -6.1720 o          1 MOL      -0.511100
     17 O2           1.7500    -3.3310    -1.5730 o          1 MOL      -0.496100
     18 C16          0.9800    -2.3560    -3.5430 ca         1 MOL      -0.205600
     19 C17          0.2890    -1.3020    -5.6150 ca         1 MOL      -0.147000
     20 C18         -0.3700    -2.5150    -3.1950 ca         1 MOL       0.213100
     21 C19         -1.0430    -1.4700    -5.2530 ca         1 MOL       0.182100
     22 C20         -1.3810    -2.0740    -4.0490 ca         1 MOL      -0.304000
     23 C21          4.4650    -3.1640    -2.0600 c3         1 MOL      -0.068900
     24 O3          -0.7800    -3.0980    -2.0260 oh         1 MOL      -0.458100
     25 O4          -2.0580    -1.0510    -6.0650 oh         1 MOL      -0.483100
     26 H1           3.4450    -3.5530    -6.6280 hc         1 MOL       0.049367
     27 H2           4.6250    -2.9370    -7.8350 hc         1 MOL       0.049367
     28 H3           4.1640    -4.6730    -7.8350 hc         1 MOL       0.049367
     29 H4           6.6900    -3.6030    -4.6210 ha         1 MOL       0.120000
     30 H5           5.8850    -5.7120    -7.5670 hc         1 MOL       0.046700
     31 H6           7.2480    -5.1930    -6.3880 hc         1 MOL       0.046700
     32 H7           4.9050    -6.9970    -5.8090 hc         1 MOL       0.049700
     33 H8           6.6800    -7.4030    -5.8970 hc         1 MOL       0.049700
     34 H9           5.4630    -5.5180    -3.7730 ha         1 MOL       0.126000
     35 H10          6.9090    -7.3840    -1.1950 hc         1 MOL       0.039533
     36 H11          7.8490    -5.9180    -1.6380 hc         1 MOL       0.039533
     37 H12          6.0530    -5.8680    -1.6380 hc         1 MOL       0.039533
     38 H13          8.2870    -8.4580    -2.6850 hc         1 MOL       0.039533
     39 H14          7.3910    -8.8010    -4.2030 hc         1 MOL       0.039533
     40 H15          8.7320    -7.6070    -4.2030 hc         1 MOL       0.039533
     41 H16          5.8220    -1.5050    -4.0520 hc         1 MOL       0.067700
     42 H17          5.1070    -1.3670    -5.7360 hc         1 MOL       0.067700
     43 H18          0.5470    -0.8230    -6.5710 ha         1 MOL       0.178000
     44 H19         -2.4370    -2.2040    -3.7710 ha         1 MOL       0.143000
     45 H20          4.0850    -2.9720    -1.0460 hc         1 MOL       0.059700
     46 H21          4.6130    -4.2450    -2.1970 hc         1 MOL       0.059700
     47 H22          5.4240    -2.6430    -2.1970 hc         1 MOL       0.059700
     48 H23         -1.7460    -3.1860    -1.8290 ho         1 MOL       0.422000
     49 H24         -2.9990    -1.1810    -5.7880 ho         1 MOL       0.425000
@<TRIPOS>BOND
     1     1     2 1   
     2     1     4 1   
     3     1     3 2   
     4     3    10 1   
     5     4     5 1   
     6     5     6 1   
     7     6     7 2   
     8     7     9 1   
     9     7     8 1   
    10    10    11 1   
    11    11    13 1   
    12    11    12 2   
    13    12    14 1   
    14    12    23 1   
    15    13    16 2   
    16    13    15 1   
    17    14    18 1   
    18    14    17 2   
    19    15    19 ar  
    20    15    18 ar  
    21    18    20 ar  
    22    19    21 ar  
    23    20    22 ar  
    24    20    24 1   
    25    21    25 1   
    26    21    22 ar  
    27     2    26 1   
    28     2    27 1   
    29     2    28 1   
    30     3    29 1   
    31     4    30 1   
    32     4    31 1   
    33     5    32 1   
    34     5    33 1   
    35     6    34 1   
    36     8    35 1   
    37     8    36 1   
    38     8    37 1   
    39     9    38 1   
    40     9    39 1   
    41     9    40 1   
    42    10    41 1   
    43    10    42 1   
    44    19    43 1   
    45    22    44 1   
    46    23    45 1   
    47    23    46 1   
    48    23    47 1   
    49    24    48 1   
    50    25    49 1   
@<TRIPOS>SUBSTRUCTURE
     1 MOL         1 TEMP              0 ****  ****    0 ROOT
