@<TRIPOS>MOLECULE
MOL
   39    39     1     0     0
SMALL
bcc


@<TRIPOS>ATOM
      1 O1          1.7020   -3.9300   -3.1530 o        1 MOL     -0.577104000
      2 N1           1.7950    -2.1830    -4.6770 ns         1 MOL      -0.567900
      3 C1           2.3390    -3.0960    -3.7950 c          1 MOL       0.639100
      4 C2           3.8550    -2.9830    -3.7100 c3         1 MOL       0.076100
      5 C3           4.2730    -2.0610    -2.5760 c3         1 MOL      -0.099100
      6 O2           4.4050    -4.2660    -3.4650 os         1 MOL      -0.305900
      7 C4           5.1570    -4.8220    -4.4700 ca         1 MOL       0.086100
      8 C5           6.0190    -5.8830    -4.2140 ca         1 MOL       0.004400
      9 C6           6.7700    -6.4280    -5.2550 ca         1 MOL      -0.120000
     10 C7           5.0360    -4.3010    -5.7530 ca         1 MOL      -0.101000
     11 C8           6.6550    -5.9110    -6.5440 ca         1 MOL       0.020400
     12 C9           5.7880    -4.8460    -6.7940 ca         1 MOL      -0.119000
     13 Cl1          6.1800    -6.5430    -2.6290 cl         1 MOL      -0.080400
     14 Cl2          7.5830    -6.5820    -7.8300 cl         1 MOL      -0.083400
     15 C10          0.3690    -2.1160    -4.9400 c3         1 MOL       0.205500
     16 C11         -0.3260    -1.7730    -3.6760 c1         1 MOL       0.185700
     17 N2          -0.8690    -1.5060    -2.6860 n1         1 MOL      -0.360800
     18 C12         -0.1160    -3.5140    -5.3670 c3         1 MOL      -0.104100
     19 C13          0.0500    -1.0410    -6.0310 c3         1 MOL      -0.068700
     20 C14         -1.2630    -1.3050    -6.7810 c3         1 MOL      -0.094100
     21 C15          1.1790    -0.8790    -7.0640 c3         1 MOL      -0.094100
     22 H1           2.4220    -1.5280    -5.1650 hn         1 MOL       0.309500
     23 H2           4.2220    -2.5720    -4.6620 h1         1 MOL       0.071700
     24 H3           4.0540    -2.5430    -1.6120 hc         1 MOL       0.058367
     25 H4           5.3520    -1.8570    -2.6480 hc         1 MOL       0.058367
     26 H5           3.7160    -1.1150    -2.6480 hc         1 MOL       0.058367
     27 H6           7.4540    -7.2670    -5.0590 ha         1 MOL       0.162000
     28 H7           4.3500    -3.4630    -5.9470 ha         1 MOL       0.184000
     29 H8           5.6980    -4.4370    -7.8110 ha         1 MOL       0.156000
     30 H9          -0.3260    -4.1190    -4.4720 hc         1 MOL       0.062367
     31 H10         -1.0330    -3.4170    -5.9670 hc         1 MOL       0.062367
     32 H11          0.6640    -4.0050    -5.9670 hc         1 MOL       0.062367
     33 H12         -0.0520    -0.1070    -5.4580 hc         1 MOL       0.052700
     34 H13         -2.0730    -1.4680    -6.0550 hc         1 MOL       0.043367
     35 H14         -1.5050    -0.4380    -7.4130 hc         1 MOL       0.043367
     36 H15         -1.1510    -2.1990    -7.4130 hc         1 MOL       0.043367
     37 H16          2.1370    -0.7420    -6.5420 hc         1 MOL       0.043367
     38 H17          1.2310    -1.7790    -7.6940 hc         1 MOL       0.043367
     39 H18          0.9760    -0.0010    -7.6940 hc         1 MOL       0.043367
@<TRIPOS>BOND
     1     1     3 2   
     2     2    15 1   
     3     2     3 1   
     4     3     4 1   
     5     4     6 1   
     6     4     5 1   
     7     6     7 1   
     8     7    10 ar  
     9     7     8 ar  
    10     8     9 ar  
    11     8    13 1   
    12     9    11 ar  
    13    10    12 ar  
    14    11    14 1   
    15    11    12 ar  
    16    15    19 1   
    17    15    18 1   
    18    15    16 1   
    19    16    17 3   
    20    19    21 1   
    21    19    20 1   
    22     2    22 1   
    23     4    23 1   
    24     5    24 1   
    25     5    25 1   
    26     5    26 1   
    27     9    27 1   
    28    10    28 1   
    29    12    29 1   
    30    18    30 1   
    31    18    31 1   
    32    18    32 1   
    33    19    33 1   
    34    20    34 1   
    35    20    35 1   
    36    20    36 1   
    37    21    37 1   
    38    21    38 1   
    39    21    39 1   
@<TRIPOS>SUBSTRUCTURE
     1 MOL         1 TEMP              0 ****  ****    0 ROOT
