@<TRIPOS>MOLECULE
MOL
   64    65     1     0     0
SMALL
bcc


@<TRIPOS>ATOM
      1 C1          3.4690   -2.5560   -2.6160 c        1 MOL      0.641298000
      2 O1           4.0240    -1.5720    -3.0810 o          1 MOL      -0.541000
      3 C2           2.0150    -2.8450    -2.8190 ce         1 MOL      -0.168400
      4 C3           1.5860    -3.4110    -3.9660 c2         1 MOL      -0.097200
      5 C4           1.1540    -2.4430    -1.6560 c3         1 MOL      -0.062900
      6 C5           0.1750    -3.7720    -4.3360 c3         1 MOL      -0.066200
      7 C6          -0.2860    -3.1830    -5.6790 c3         1 MOL      -0.109400
      8 C7          -0.6560    -1.6780    -5.7010 c3         1 MOL       0.122800
      9 C8          -1.1730    -1.2000    -4.3370 c3         1 MOL      -0.127100
     10 O2          -1.7240    -1.4360    -6.6380 oh         1 MOL      -0.604800
     11 C9           0.5440    -0.8150    -6.2050 c3         1 MOL       0.156100
     12 C10          1.5410    -1.5320    -7.1030 c3         1 MOL      -0.132100
     13 O3           1.2640    -0.2990    -5.0770 oh         1 MOL      -0.602800
     14 O4           4.0660    -3.5630    -1.9320 os         1 MOL      -0.441900
     15 C11          5.4910    -3.4790    -1.7470 c3         1 MOL       0.135400
     16 C12          6.2480    -4.2460    -2.8600 c3         1 MOL      -0.063000
     17 C13          7.3460    -5.1300    -2.2250 c3         1 MOL      -0.092600
     18 C14          6.9450    -3.2450    -3.8030 c3         1 MOL      -0.092600
     19 C15          5.2760    -5.1880    -3.6340 c3         1 MOL      -0.029200
     20 C16          5.6380    -5.5310    -5.0670 cc         1 MOL      -0.177400
     21 C17          6.5530    -6.4560    -5.3950 cd         1 MOL       0.045900
     22 C18          4.9890    -4.7250    -6.1410 c          1 MOL       0.589900
     23 C19          6.9120    -6.7640    -6.8030 c          1 MOL       0.556900
     24 C20          5.2990    -5.0400    -7.5510 ca         1 MOL      -0.127600
     25 O5           4.2170    -3.8090    -5.8770 o          1 MOL      -0.536100
     26 O6           7.7550    -7.6280    -7.0280 o          1 MOL      -0.523100
     27 C21          6.2290    -6.0240    -7.8710 ca         1 MOL      -0.138600
     28 C22          4.6500    -4.3390    -8.5760 ca         1 MOL      -0.089000
     29 C23          6.5210    -6.3110    -9.2110 ca         1 MOL      -0.077000
     30 C24          4.9370    -4.6250    -9.9130 ca         1 MOL      -0.106000
     31 C25          5.8730    -5.6100   -10.2300 ca         1 MOL      -0.120000
     32 O7           7.2090    -7.1960    -4.4250 oh         1 MOL      -0.481100
     33 H1           2.3580    -3.6340    -4.7170 ha         1 MOL       0.159000
     34 H2           1.6710    -2.6850    -0.7160 hc         1 MOL       0.056367
     35 H3           0.9600    -1.3610    -1.7000 hc         1 MOL       0.056367
     36 H4           0.2000    -2.9890    -1.7000 hc         1 MOL       0.056367
     37 H5           0.1020    -4.8680    -4.3950 hc         1 MOL       0.065200
     38 H6          -0.4780    -3.3470    -3.5590 hc         1 MOL       0.065200
     39 H7           0.5270    -3.3350    -6.4040 hc         1 MOL       0.059200
     40 H8          -1.2230    -3.7090    -5.9140 hc         1 MOL       0.059200
     41 H9          -0.6200    -1.7110    -3.5350 hc         1 MOL       0.048700
     42 H10         -1.0250    -0.1140    -4.2490 hc         1 MOL       0.048700
     43 H11         -2.2440    -1.4330    -4.2490 hc         1 MOL       0.048700
     44 H12         -2.5600    -1.2460    -6.1430 ho         1 MOL       0.401000
     45 H13          0.0830    -0.0280    -6.8200 h1         1 MOL       0.079700
     46 H14          2.2780    -2.0620    -6.4820 hc         1 MOL       0.051033
     47 H15          1.0080    -2.2550    -7.7380 hc         1 MOL       0.051033
     48 H16          2.0570    -0.7970    -7.7380 hc         1 MOL       0.051033
     49 H17          0.8330    -0.6080    -4.2410 ho         1 MOL       0.407000
     50 H18          5.7940    -2.4220    -1.7700 h1         1 MOL       0.069200
     51 H19          5.7430    -3.9340    -0.7780 h1         1 MOL       0.069200
     52 H20          7.2750    -5.0720    -1.1290 hc         1 MOL       0.041867
     53 H21          7.2090    -6.1730    -2.5470 hc         1 MOL       0.041867
     54 H22          8.3350    -4.7740    -2.5470 hc         1 MOL       0.041867
     55 H23          7.4730    -2.4860    -3.2070 hc         1 MOL       0.041867
     56 H24          7.6670    -3.7800    -4.4380 hc         1 MOL       0.041867
     57 H25          6.1920    -2.7540    -4.4380 hc         1 MOL       0.041867
     58 H26          5.2140    -6.1320    -3.0730 hc         1 MOL       0.071200
     59 H27          4.3330    -4.6260    -3.7060 hc         1 MOL       0.071200
     60 H28          3.9130    -3.5620    -8.3270 ha         1 MOL       0.167000
     61 H29          7.2600    -7.0870    -9.4600 ha         1 MOL       0.160000
     62 H30          4.4250    -4.0740   -10.7160 ha         1 MOL       0.147000
     63 H31          6.1000    -5.8340   -11.2830 ha         1 MOL       0.145000
     64 H32          7.8810    -7.8730    -4.6890 ho         1 MOL       0.444000
@<TRIPOS>BOND
     1     1     2 2   
     2     1     3 1   
     3     1    14 1   
     4     3     4 2   
     5     3     5 1   
     6     4     6 1   
     7     6     7 1   
     8     7     8 1   
     9     8    10 1   
    10     8    11 1   
    11     8     9 1   
    12    11    12 1   
    13    11    13 1   
    14    14    15 1   
    15    15    16 1   
    16    16    18 1   
    17    16    19 1   
    18    16    17 1   
    19    19    20 1   
    20    20    22 1   
    21    20    21 2   
    22    21    23 1   
    23    21    32 1   
    24    22    24 1   
    25    22    25 2   
    26    23    27 1   
    27    23    26 2   
    28    24    28 ar  
    29    24    27 ar  
    30    27    29 ar  
    31    28    30 ar  
    32    29    31 ar  
    33    30    31 ar  
    34     4    33 1   
    35     5    34 1   
    36     5    35 1   
    37     5    36 1   
    38     6    37 1   
    39     6    38 1   
    40     7    39 1   
    41     7    40 1   
    42     9    41 1   
    43     9    42 1   
    44     9    43 1   
    45    10    44 1   
    46    11    45 1   
    47    12    46 1   
    48    12    47 1   
    49    12    48 1   
    50    13    49 1   
    51    15    50 1   
    52    15    51 1   
    53    17    52 1   
    54    17    53 1   
    55    17    54 1   
    56    18    55 1   
    57    18    56 1   
    58    18    57 1   
    59    19    58 1   
    60    19    59 1   
    61    28    60 1   
    62    29    61 1   
    63    30    62 1   
    64    31    63 1   
    65    32    64 1   
@<TRIPOS>SUBSTRUCTURE
     1 MOL         1 TEMP              0 ****  ****    0 ROOT
